40
 generated by VMD
 C       -46.221500      -34.042400      -69.272697
 C       -47.193298      -34.216801      -70.310097
 C       -46.983299      -35.133801      -71.327003
 C       -45.815601      -36.020199      -71.368301
 C       -44.822800      -35.775600      -70.350197
 C       -45.014198      -34.788700      -69.343903
 H       -46.563000      -33.556702      -68.370300
 H       -47.790100      -35.164902      -72.117203
 H       -43.974602      -36.389198      -70.324997
 H       -44.195202      -34.874199      -68.510201
 C       -45.569302      -36.923599      -72.546700
 H       -46.188202      -37.818600      -72.704201
 H       -44.549900      -37.214199      -72.422401
 C       -48.459202      -33.396198      -70.215302
 H       -49.161098      -33.688000      -70.973602
 H       -49.033798      -33.644600      -69.321297
 S       -45.725601      -35.804001      -74.185097
 S       -48.466599      -31.523300      -70.231598
 C       -44.171299      -34.806801      -74.551903
 H       -43.280399      -35.315399      -74.203697
 H       -44.133301      -34.733101      -75.622803
 C       -47.945000      -31.041901      -71.998398
 H       -48.227299      -29.981400      -72.033699
 H       -48.654900      -31.475201      -72.687202
 C       -46.514599      -31.373501      -72.311996
 H       -46.576801      -32.463902      -72.670197
 H       -46.200600      -30.863400      -73.274399
 C       -44.102001      -33.234402      -74.015900
 H       -45.028198      -32.675800      -74.289803
 H       -43.316399      -32.703300      -74.627899
 C       -43.652599      -33.051899      -72.565201
 C       -42.488998      -33.733101      -72.120796
 C       -44.213799      -32.298302      -71.458702
 H       -41.966999      -34.513599      -72.699303
 C       -43.403900      -32.342098      -70.315300
 C       -45.317902      -31.360701      -71.390602
 C       -45.385399      -30.716200      -70.151100
 S       -42.062901      -33.441299      -70.444603
 S       -44.025299      -31.297100      -69.080597
 H       -46.048302      -29.921499      -69.819504
