40
 generated by VMD
 C       -47.087502      -35.213799      -70.083199
 C       -47.657799      -34.808498      -71.332199
 C       -46.883499      -34.984699      -72.503601
 C       -45.618099      -35.610901      -72.421204
 C       -45.026699      -35.909698      -71.171799
 C       -45.759300      -35.697399      -70.018402
 H       -47.560799      -35.120399      -69.137398
 H       -47.381001      -34.864498      -73.462601
 H       -43.963501      -36.271198      -71.065399
 H       -45.240898      -36.023300      -69.073601
 C       -44.984001      -36.078098      -73.737999
 H       -45.582401      -36.917301      -74.073997
 H       -43.983501      -36.422199      -73.358498
 C       -49.012299      -34.049999      -71.356796
 H       -49.328499      -33.650398      -72.321999
 H       -49.847500      -34.669701      -70.819000
 S       -44.831100      -34.760601      -75.026604
 S       -48.791199      -32.602001      -70.187599
 C       -43.415401      -33.735001      -74.367798
 H       -42.658401      -34.435902      -73.939400
 H       -42.999599      -33.337898      -75.307701
 C       -48.047001      -31.288700      -71.284500
 H       -48.099602      -30.389999      -70.620399
 H       -48.815601      -31.067400      -72.048897
 C       -46.606499      -31.513300      -71.749298
 H       -46.623501      -32.248798      -72.638702
 H       -46.303902      -30.594801      -72.344498
 C       -43.789799      -32.673901      -73.390503
 H       -44.895100      -32.549301      -73.411003
 H       -43.313202      -31.699699      -73.792297
 C       -43.328999      -32.629799      -71.964798
 C       -42.032700      -32.936401      -71.503502
 C       -44.168499      -32.219299      -70.876099
 H       -41.181198      -33.341999      -72.002403
 C       -43.451801      -32.267601      -69.638298
 C       -45.608799      -31.792400      -70.621101
 C       -45.880199      -31.601200      -69.245399
 S       -41.802502      -32.730598      -69.770203
 S       -44.463100      -31.762400      -68.289101
 H       -46.678101      -31.088600      -68.824997
