40
 generated by VMD
 C       -44.551300      -33.193901      -68.656403
 C       -45.903599      -33.539101      -68.755203
 C       -46.231400      -34.751301      -69.385101
 C       -45.330002      -35.535599      -70.107201
 C       -43.954800      -35.128101      -70.037903
 C       -43.565800      -33.990398      -69.306602
 H       -44.204899      -32.410400      -68.119003
 H       -47.251900      -35.024601      -69.287903
 H       -43.222401      -35.803799      -70.423897
 H       -42.536400      -33.738800      -69.060898
 C       -45.717400      -36.855701      -70.799004
 H       -46.123901      -37.549702      -70.059196
 H       -44.953602      -37.242901      -71.414902
 C       -47.032799      -32.663101      -68.178596
 H       -47.962399      -33.271702      -68.359802
 H       -46.874100      -32.558899      -67.089203
 S       -47.154301      -36.653000      -71.945702
 S       -47.155899      -30.969900      -68.938904
 C       -46.231899      -36.184299      -73.523300
 H       -45.220501      -36.644901      -73.560699
 H       -46.678799      -36.740002      -74.389503
 C       -47.998600      -31.334999      -70.618103
 H       -48.292198      -30.309299      -70.984596
 H       -48.988800      -31.787100      -70.366798
 C       -47.157001      -32.110500      -71.676598
 H       -47.193699      -33.256901      -71.455902
 H       -47.631001      -32.106098      -72.707397
 C       -46.157398      -34.676102      -73.786201
 H       -46.889000      -34.176102      -73.237297
 H       -46.400299      -34.508202      -74.805496
 C       -44.911301      -33.912601      -73.454399
 C       -43.647701      -34.299198      -73.886497
 C       -44.819401      -32.660500      -72.756897
 H       -43.283001      -35.282001      -74.335503
 C       -43.518600      -32.166100      -72.660797
 C       -45.722000      -31.756901      -71.993599
 C       -45.084202      -30.611200      -71.541496
 S       -42.349499      -33.238400      -73.348801
 S       -43.390598      -30.624100      -71.895203
 H       -45.403500      -29.780300      -70.953400
