40
 generated by VMD
 C       -44.741001      -33.367199      -68.900597
 C       -46.039902      -33.781399      -69.254204
 C       -46.211899      -34.938202      -70.040604
 C       -45.116798      -35.650700      -70.415298
 C       -43.808399      -35.151501      -70.182800
 C       -43.581501      -34.046799      -69.383698
 H       -44.604401      -32.425598      -68.272400
 H       -47.181000      -35.390900      -70.070000
 H       -42.961601      -35.712002      -70.586800
 H       -42.564301      -33.610500      -69.144302
 C       -45.176998      -36.985199      -71.264503
 H       -45.488098      -37.791000      -70.671402
 H       -44.177299      -37.293301      -71.759903
 C       -47.260101      -33.159901      -68.615799
 H       -48.179699      -33.562302      -69.001198
 H       -47.360199      -33.422199      -67.517403
 S       -46.668201      -37.050800      -72.456200
 S       -47.354900      -31.279600      -68.767403
 C       -46.086102      -35.941601      -73.908699
 H       -45.083199      -36.348000      -74.101601
 H       -46.699299      -36.224701      -74.828903
 C       -48.125500      -31.096201      -70.422997
 H       -48.178501      -29.997801      -70.613197
 H       -49.168400      -31.441200      -70.309700
 C       -47.392101      -31.789499      -71.603203
 H       -47.650200      -32.892899      -71.479202
 H       -47.890499      -31.415400      -72.535301
 C       -46.147999      -34.373100      -73.678299
 H       -47.095699      -34.156300      -73.141403
 H       -46.233002      -33.858398      -74.668098
 C       -44.917301      -33.743401      -73.085098
 C       -43.643700      -34.120098      -73.502197
 C       -44.888401      -32.547298      -72.375702
 H       -43.360699      -35.128799      -73.921501
 C       -43.559101      -32.075401      -72.242203
 C       -45.900600      -31.591700      -71.680603
 C       -45.215199      -30.520300      -71.147797
 S       -42.402599      -32.925499      -73.185303
 S       -43.506802      -30.466400      -71.422501
 H       -45.673901      -29.825800      -70.528603
