40
 generated by VMD
 C       -46.665501      -34.656300      -68.932404
 C       -47.651501      -34.660999      -69.956703
 C       -47.420101      -35.477798      -71.090698
 C       -46.115002      -36.056400      -71.304497
 C       -45.081001      -35.894100      -70.355301
 C       -45.376701      -35.290798      -69.134598
 H       -46.877899      -34.097500      -68.008499
 H       -48.294701      -35.671001      -71.772003
 H       -44.099300      -36.365200      -70.512497
 H       -44.573399      -35.095901      -68.385803
 C       -45.872799      -37.002602      -72.428902
 H       -46.636902      -37.698799      -72.628098
 H       -45.016998      -37.639099      -72.245003
 C       -48.965302      -33.959000      -69.929001
 H       -49.612900      -34.310200      -70.739799
 H       -49.511902      -34.102699      -68.931900
 S       -45.637798      -36.123699      -74.024101
 S       -48.838799      -32.056400      -69.904602
 C       -44.017799      -35.298698      -73.744301
 H       -43.584000      -35.660099      -72.829399
 H       -43.348801      -35.722801      -74.498901
 C       -47.990700      -31.549200      -71.525803
 H       -47.799198      -30.444700      -71.442497
 H       -48.795399      -31.643200      -72.300903
 C       -46.587101      -32.107498      -71.984001
 H       -46.648201      -33.202999      -71.947403
 H       -46.539902      -31.859699      -73.044998
 C       -44.283798      -33.745201      -73.642403
 H       -45.439800      -33.679100      -73.546600
 H       -44.107300      -33.303600      -74.606499
 C       -43.446201      -33.001400      -72.612900
 C       -42.093399      -33.121601      -72.513298
 C       -44.006802      -32.135399      -71.601097
 H       -41.346699      -33.611698      -73.113701
 C       -43.035000      -31.527700      -70.857300
 C       -45.323799      -31.608299      -71.316002
 C       -45.258701      -30.659500      -70.251198
 S       -41.367500      -32.079601      -71.324799
 S       -43.609299      -30.268400      -69.797203
 H       -46.131100      -30.144699      -69.844398
